*SPEF "ieee 1481-1999"
*DESIGN "alu32"
*DATE "15:49:42 Sunday June 28, 2026"
*VENDOR "The OpenROAD Project"
*PROGRAM "OpenROAD"
*VERSION "edf00dff99f6c40d67a30c0e22a8191c5d2ed9d6"
*DESIGN_FLOW "NAME_SCOPE LOCAL" "PIN_CAP NONE"
*DIVIDER /
*DELIMITER :
*BUS_DELIMITER []
*T_UNIT 1 NS
*C_UNIT 1 PF
*R_UNIT 1 OHM
*L_UNIT 1 HENRY

*NAME_MAP
*1 A[0]
*2 A[10]
*3 A[11]
*4 A[12]
*5 A[13]
*6 A[14]
*7 A[15]
*8 A[16]
*9 A[17]
*10 A[18]
*11 A[19]
*12 A[1]
*13 A[20]
*14 A[21]
*15 A[22]
*16 A[23]
*17 A[24]
*18 A[25]
*19 A[26]
*20 A[27]
*21 A[28]
*22 A[29]
*23 A[2]
*24 A[30]
*25 A[31]
*26 A[3]
*27 A[4]
*28 A[5]
*29 A[6]
*30 A[7]
*31 A[8]
*32 A[9]
*33 B[0]
*34 B[10]
*35 B[11]
*36 B[12]
*37 B[13]
*38 B[14]
*39 B[15]
*40 B[16]
*41 B[17]
*42 B[18]
*43 B[19]
*44 B[1]
*45 B[20]
*46 B[21]
*47 B[22]
*48 B[23]
*49 B[24]
*50 B[25]
*51 B[26]
*52 B[27]
*53 B[28]
*54 B[29]
*55 B[2]
*56 B[30]
*57 B[31]
*58 B[3]
*59 B[4]
*60 B[5]
*61 B[6]
*62 B[7]
*63 B[8]
*64 B[9]
*65 C
*66 N
*67 P
*68 Result[0]
*69 Result[10]
*70 Result[11]
*71 Result[12]
*72 Result[13]
*73 Result[14]
*74 Result[15]
*75 Result[16]
*76 Result[17]
*77 Result[18]
*78 Result[19]
*79 Result[1]
*80 Result[20]
*81 Result[21]
*82 Result[22]
*83 Result[23]
*84 Result[24]
*85 Result[25]
*86 Result[26]
*87 Result[27]
*88 Result[28]
*89 Result[29]
*90 Result[2]
*91 Result[30]
*92 Result[31]
*93 Result[3]
*94 Result[4]
*95 Result[5]
*96 Result[6]
*97 Result[7]
*98 Result[8]
*99 Result[9]
*100 V
*103 Z
*104 alu_opcode[0]
*105 alu_opcode[1]
*106 alu_opcode[2]
*107 alu_opcode[3]
*108 alu_opcode[4]
*109 _0000_
*110 _0001_
*111 _0002_
*112 _0003_
*113 _0004_
*114 _0005_
*115 _0006_
*116 _0007_
*117 _0008_
*118 _0009_
*119 _0010_
*120 _0011_
*121 _0012_
*122 _0013_
*123 _0014_
*124 _0015_
*125 _0016_
*126 _0017_
*127 _0018_
*128 _0019_
*129 _0020_
*130 _0021_
*131 _0022_
*132 _0023_
*133 _0024_
*134 _0025_
*135 _0026_
*136 _0027_
*137 _0028_
*138 _0029_
*139 _0030_
*140 _0031_
*141 _0032_
*142 _0033_
*143 _0034_
*144 _0035_
*145 _0036_
*146 _0037_
*147 _0038_
*148 _0039_
*149 _0040_
*150 _0041_
*151 _0042_
*152 _0043_
*153 _0044_
*154 _0045_
*155 _0046_
*156 _0047_
*157 _0048_
*158 _0049_
*159 _0050_
*160 _0051_
*161 _0052_
*162 _0053_
*163 _0054_
*164 _0055_
*165 _0056_
*166 _0057_
*167 _0058_
*168 _0059_
*169 _0060_
*170 _0061_
*171 _0062_
*172 _0063_
*173 _0064_
*174 _0065_
*175 _0066_
*176 _0067_
*177 _0068_
*178 _0069_
*179 _0070_
*180 _0071_
*181 _0072_
*182 _0073_
*183 _0074_
*184 _0075_
*185 _0076_
*186 _0077_
*187 _0078_
*188 _0079_
*189 _0080_
*190 _0081_
*191 _0082_
*192 _0083_
*193 _0084_
*194 _0085_
*195 _0086_
*196 _0087_
*197 _0088_
*198 _0089_
*199 _0090_
*200 _0091_
*201 _0092_
*202 _0093_
*203 _0094_
*204 _0095_
*205 _0096_
*206 _0097_
*207 _0098_
*208 _0099_
*209 _0100_
*210 _0101_
*211 _0102_
*212 _0103_
*213 _0104_
*214 _0105_
*215 _0106_
*216 _0107_
*217 _0108_
*218 _0109_
*219 _0110_
*220 _0111_
*221 _0112_
*222 _0113_
*223 _0114_
*224 _0115_
*225 _0116_
*226 _0117_
*227 _0118_
*228 _0119_
*229 _0120_
*230 _0121_
*231 _0122_
*232 _0123_
*233 _0124_
*234 _0125_
*235 _0126_
*236 _0127_
*237 _0128_
*238 _0129_
*239 _0130_
*240 _0131_
*241 _0132_
*242 _0133_
*243 _0134_
*244 _0135_
*245 _0136_
*246 _0137_
*247 _0138_
*248 _0139_
*249 _0140_
*250 _0141_
*251 _0142_
*252 _0143_
*253 _0144_
*254 _0145_
*255 _0146_
*256 _0147_
*257 _0148_
*258 _0149_
*259 _0150_
*260 _0151_
*261 _0152_
*262 _0153_
*263 _0154_
*264 _0155_
*265 _0156_
*266 _0157_
*267 _0158_
*268 _0159_
*269 _0160_
*270 _0161_
*271 _0162_
*272 _0163_
*273 _0164_
*274 _0165_
*275 _0166_
*276 _0167_
*277 _0168_
*278 _0169_
*279 _0170_
*280 _0171_
*281 _0172_
*282 _0173_
*283 _0174_
*284 _0175_
*285 _0176_
*286 _0177_
*287 _0178_
*288 _0179_
*289 _0180_
*290 _0181_
*291 _0182_
*292 _0183_
*293 _0184_
*294 _0185_
*295 _0186_
*296 _0187_
*297 _0188_
*298 _0189_
*299 _0190_
*300 _0191_
*301 _0192_
*302 _0193_
*303 _0194_
*304 _0195_
*305 _0196_
*306 _0197_
*307 _0198_
*308 _0199_
*309 _0200_
*310 _0201_
*311 _0202_
*312 _0203_
*313 _0204_
*314 _0205_
*315 _0206_
*316 _0207_
*317 _0208_
*318 _0209_
*319 _0210_
*320 _0211_
*321 _0212_
*322 _0213_
*323 _0214_
*324 _0215_
*325 _0216_
*326 _0217_
*327 _0218_
*328 _0219_
*329 _0220_
*330 _0221_
*331 _0222_
*332 _0223_
*333 _0224_
*334 _0225_
*335 _0226_
*336 _0227_
*337 _0228_
*338 _0229_
*339 _0230_
*340 _0231_
*341 _0232_
*342 _0233_
*343 _0234_
*344 _0235_
*345 _0236_
*346 _0237_
*347 _0238_
*348 _0239_
*349 _0240_
*350 _0241_
*351 _0242_
*352 _0243_
*353 _0244_
*354 _0245_
*355 _0246_
*356 _0247_
*357 _0248_
*358 _0249_
*359 _0250_
*360 _0251_
*361 _0252_
*362 _0253_
*363 _0254_
*364 _0255_
*365 _0256_
*366 _0257_
*367 _0258_
*368 _0259_
*369 _0260_
*370 _0261_
*371 _0262_
*372 _0263_
*373 _0264_
*374 _0265_
*375 _0266_
*376 _0267_
*377 _0268_
*378 _0269_
*379 _0270_
*380 _0271_
*381 _0272_
*382 _0273_
*383 _0274_
*384 _0275_
*385 _0276_
*386 _0277_
*387 _0278_
*388 _0279_
*389 _0280_
*390 _0281_
*391 _0282_
*392 _0283_
*393 _0284_
*394 _0285_
*395 _0286_
*396 _0287_
*397 _0288_
*398 _0289_
*399 _0290_
*400 _0291_
*401 _0292_
*402 _0293_
*403 _0294_
*404 _0295_
*405 _0296_
*406 _0297_
*407 _0298_
*408 _0299_
*409 _0300_
*410 _0301_
*411 _0302_
*412 _0303_
*413 _0304_
*414 _0305_
*415 _0306_
*416 _0307_
*417 _0308_
*418 _0309_
*419 _0310_
*420 _0311_
*421 _0312_
*422 _0313_
*423 _0314_
*424 _0315_
*425 _0316_
*426 _0317_
*427 _0318_
*428 _0319_
*429 _0320_
*430 _0321_
*431 _0322_
*432 _0323_
*433 _0324_
*434 _0325_
*435 _0326_
*436 _0327_
*437 _0328_
*438 _0329_
*439 _0330_
*440 _0331_
*441 _0332_
*442 _0333_
*443 _0334_
*444 _0335_
*445 _0336_
*446 _0337_
*447 _0338_
*448 _0339_
*449 _0340_
*450 _0341_
*451 _0342_
*452 _0343_
*453 _0344_
*454 _0345_
*455 _0346_
*456 _0347_
*457 _0348_
*458 _0349_
*459 _0350_
*460 _0351_
*461 _0352_
*462 _0353_
*463 _0354_
*464 _0355_
*465 _0356_
*466 _0357_
*467 _0358_
*468 _0359_
*469 _0360_
*470 _0361_
*471 _0362_
*472 _0363_
*473 _0364_
*474 _0365_
*475 _0366_
*476 _0367_
*477 _0368_
*478 _0369_
*479 _0370_
*480 _0371_
*481 _0372_
*482 _0373_
*483 _0374_
*484 _0375_
*485 _0376_
*486 _0377_
*487 _0378_
*488 _0379_
*489 _0380_
*490 _0381_
*491 _0382_
*492 _0383_
*493 _0384_
*494 _0385_
*495 _0386_
*496 _0387_
*497 _0388_
*498 _0389_
*499 _0390_
*500 _0391_
*501 _0392_
*502 _0393_
*503 _0394_
*504 _0395_
*505 _0396_
*506 _0397_
*507 _0398_
*508 _0399_
*509 _0400_
*510 _0401_
*511 _0402_
*512 _0403_
*513 _0404_
*514 _0405_
*515 _0406_
*516 _0407_
*517 _0408_
*518 _0409_
*519 _0410_
*520 _0411_
*521 _0412_
*522 _0413_
*523 _0414_
*524 _0415_
*525 _0416_
*526 _0417_
*527 _0418_
*528 _0419_
*529 _0420_
*530 _0421_
*531 _0422_
*532 _0423_
*533 _0424_
*534 _0425_
*535 _0426_
*536 _0427_
*537 _0428_
*538 _0429_
*539 _0430_
*540 _0431_
*541 _0432_
*542 _0433_
*543 _0434_
*544 _0435_
*545 _0436_
*546 _0437_
*547 _0438_
*548 _0439_
*549 _0440_
*550 _0441_
*551 _0442_
*552 _0443_
*553 _0444_
*554 _0445_
*555 _0446_
*556 _0447_
*557 _0448_
*558 _0449_
*559 _0450_
*560 _0451_
*561 _0452_
*562 _0453_
*563 _0454_
*564 _0455_
*565 _0456_
*566 _0457_
*567 _0458_
*568 _0459_
*569 _0460_
*570 _0461_
*571 _0462_
*572 _0463_
*573 _0464_
*574 _0465_
*575 _0466_
*576 _0467_
*577 _0468_
*578 _0469_
*579 _0470_
*580 _0471_
*581 _0472_
*582 _0473_
*583 _0474_
*584 _0475_
*585 _0476_
*586 _0477_
*587 _0478_
*588 _0479_
*589 _0480_
*590 _0481_
*591 _0482_
*592 _0483_
*593 _0484_
*594 _0485_
*595 _0486_
*596 _0487_
*597 _0488_
*598 _0489_
*599 _0490_
*600 _0491_
*601 _0492_
*602 _0493_
*603 _0494_
*604 _0495_
*605 _0496_
*606 _0497_
*607 _0498_
*608 _0499_
*609 _0500_
*610 _0501_
*611 _0502_
*612 _0503_
*613 _0504_
*614 _0505_
*615 _0506_
*616 _0507_
*617 _0508_
*618 _0509_
*619 _0510_
*620 _0511_
*621 _0512_
*622 _0513_
*623 _0514_
*624 _0515_
*625 _0516_
*626 _0517_
*627 _0518_
*628 _0519_
*629 _0520_
*630 _0521_
*631 _0522_
*632 _0523_
*633 _0524_
*634 _0525_
*635 _0526_
*636 _0527_
*637 _0528_
*638 _0529_
*639 _0530_
*640 _0531_
*641 _0532_
*642 _0533_
*643 _0534_
*644 _0535_
*645 _0536_
*646 _0537_
*647 _0538_
*648 _0539_
*649 _0540_
*650 _0541_
*651 _0542_
*652 _0543_
*653 _0544_
*654 _0545_
*655 _0546_
*656 _0547_
*657 _0548_
*658 _0549_
*659 _0550_
*660 _0551_
*661 _0552_
*662 _0553_
*663 _0554_
*664 _0555_
*665 _0556_
*666 _0557_
*667 _0558_
*668 _0559_
*669 _0560_
*670 _0561_
*671 _0562_
*672 _0563_
*673 _0564_
*674 _0565_
*675 _0566_
*676 _0567_
*677 _0568_
*678 _0569_
*679 _0570_
*680 _0571_
*681 _0572_
*682 _0573_
*683 _0574_
*684 _0575_
*685 _0576_
*686 _0577_
*687 _0578_
*688 _0579_
*689 _0580_
*690 _0581_
*691 _0582_
*692 _0583_
*693 _0584_
*694 _0585_
*695 _0586_
*696 _0587_
*697 _0588_
*698 _0589_
*699 _0590_
*700 _0591_
*701 _0592_
*702 _0593_
*703 _0594_
*704 _0595_
*705 _0596_
*706 _0597_
*707 _0598_
*708 _0599_
*709 _0600_
*710 _0601_
*711 _0602_
*712 _0603_
*713 _0604_
*714 _0605_
*715 _0606_
*716 _0607_
*717 _0608_
*718 _0609_
*719 _0610_
*720 _0611_
*721 _0612_
*722 _0613_
*723 _0614_
*724 _0615_
*725 _0616_
*726 _0617_
*727 _0618_
*728 _0619_
*729 _0620_
*730 _0621_
*731 _0622_
*732 _0623_
*733 _0624_
*734 _0625_
*735 _0626_
*736 _0627_
*737 _0628_
*738 _0629_
*739 _0630_
*740 _0631_
*741 _0632_
*742 _0633_
*743 _0634_
*744 _0635_
*745 _0636_
*746 _0637_
*747 _0638_
*748 _0639_
*749 _0640_
*750 _0641_
*751 _0642_
*752 _0643_
*753 _0644_
*754 _0645_
*755 _0646_
*756 _0647_
*757 _0648_
*758 _0649_
*759 _0650_
*760 _0651_
*761 _0652_
*762 _0653_
*763 _0654_
*764 _0655_
*765 _0656_
*766 _0657_
*767 _0658_
*768 _0659_
*769 _0660_
*770 _0661_
*771 _0662_
*772 _0663_
*773 _0664_
*774 _0665_
*775 _0666_
*776 _0667_
*777 _0668_
*778 _0669_
*779 _0670_
*780 _0671_
*781 _0672_
*782 _0673_
*783 _0674_
*784 _0675_
*785 _0676_
*786 _0677_
*787 _0678_
*788 _0679_
*789 _0680_
*790 _0681_
*791 _0682_
*792 _0683_
*793 _0684_
*794 _0685_
*795 _0686_
*796 _0687_
*797 _0688_
*798 _0689_
*799 _0690_
*800 _0691_
*801 _0692_
*802 _0693_
*803 _0694_
*804 _0695_
*805 _0696_
*806 _0697_
*807 _0698_
*808 _0699_
*809 _0700_
*810 _0701_
*811 _0702_
*812 _0703_
*813 _0704_
*814 _0705_
*815 _0706_
*816 _0707_
*817 _0708_
*818 _0709_
*819 _0710_
*820 _0711_
*821 _0712_
*822 _0713_
*823 _0714_
*824 _0715_
*825 _0716_
*826 _0717_
*827 _0718_
*828 _0719_
*829 _0720_
*830 _0721_
*831 _0722_
*832 _0723_
*833 _0724_
*834 _0725_
*835 _0726_
*836 _0727_
*837 _0728_
*838 _0729_
*839 _0730_
*840 _0731_
*841 _0732_
*842 _0733_
*843 _0734_
*844 _0735_
*845 _0736_
*846 _0737_
*847 _0738_
*848 _0739_
*849 _0740_
*850 _0741_
*851 _0742_
*852 _0743_
*853 _0744_
*854 _0745_
*855 _0746_
*856 _0747_
*857 _0748_
*858 _0749_
*859 _0750_
*860 _0751_
*861 _0752_
*862 _0753_
*863 _0754_
*864 _0755_
*865 _0756_
*866 _0757_
*867 _0758_
*868 _0759_
*869 _0760_
*870 _0761_
*871 _0762_
*872 _0763_
*873 _0764_
*874 _0765_
*875 _0766_
*876 _0767_
*877 _0768_
*878 _0769_
*879 _0770_
*880 _0771_
*881 _0772_
*882 _0773_
*883 _0774_
*884 _0775_
*885 _0776_
*886 _0777_
*887 _0778_
*888 _0779_
*889 _0780_
*890 _0781_
*891 _0782_
*892 _0783_
*893 _0784_
*894 _0785_
*895 _0786_
*896 _0787_
*897 _0788_
*898 _0789_
*899 _0790_
*900 _0791_
*901 _0792_
*902 _0793_
*903 _0794_
*904 _0795_
*905 _0796_
*906 _0797_
*907 _0798_
*908 _0799_
*909 _0800_
*910 _0801_
*911 _0802_
*912 _0803_
*913 _0804_
*914 _0805_
*915 _0806_
*916 _0807_
*917 _0808_
*918 _0809_
*919 _0810_
*920 _0811_
*921 _0812_
*922 _0813_
*923 _0814_
*924 _0815_
*925 _0816_
*926 _0817_
*927 _0818_
*928 _0819_
*929 _0820_
*930 _0821_
*931 _0822_
*932 _0823_
*933 _0824_
*934 _0825_
*935 _0826_
*936 _0827_
*937 _0828_
*938 _0829_
*939 _0830_
*940 _0831_
*941 _0832_
*942 _0833_
*943 _0834_
*944 _0835_
*945 _0836_
*946 _0837_
*947 _0838_
*948 _0839_
*949 _0840_
*950 _0841_
*951 _0842_
*952 _0843_
*953 _0844_
*954 _0845_
*955 _0846_
*956 _0847_
*957 _0848_
*958 _0849_
*959 _0850_
*960 _0851_
*961 _0852_
*962 _0853_
*963 _0854_
*964 _0855_
*965 _0856_
*966 _0857_
*967 _0858_
*968 _0859_
*969 _0860_
*970 _0861_
*971 _0862_
*972 _0863_
*973 _0864_
*974 _0865_
*975 _0866_
*976 _0867_
*977 _0868_
*978 _0869_
*979 _0870_
*980 _0871_
*981 _0872_
*982 _0873_
*983 _0874_
*984 _0875_
*985 _0876_
*986 _0877_
*987 _0878_
*988 _0879_
*989 _0880_
*990 _0881_
*991 _0882_
*992 _0883_
*993 _0884_
*994 _0885_
*995 _0886_
*996 _0887_
*997 _0888_
*998 _0889_
*999 _0890_
*1000 _0891_
*1001 _0892_
*1002 _0893_
*1003 _0894_
*1004 _0895_
*1005 _0896_
*1006 _0897_
*1007 _0898_
*1008 _0899_
*1009 _0900_
*1010 _0901_
*1011 _0902_
*1012 _0903_
*1013 _0904_
*1014 _0905_
*1015 _0906_
*1016 _0907_
*1017 _0908_
*1018 _0909_
*1019 _0910_
*1020 _0911_
*1021 _0912_
*1022 _0913_
*1023 _0914_
*1024 _0915_
*1025 _0916_
*1026 _0917_
*1027 _0918_
*1028 _0919_
*1029 _0920_
*1030 _0921_
*1031 _0922_
*1032 _0923_
*1033 _0924_
*1034 _0925_
*1035 _0926_
*1036 _0927_
*1037 _0928_
*1038 _0929_
*1039 _0930_
*1040 _0931_
*1041 _0932_
*1042 _0933_
*1043 _0934_
*1044 _0935_
*1045 _0936_
*1046 _0937_
*1047 _0938_
*1048 _0939_
*1049 _0940_
*1050 _0941_
*1051 _0942_
*1052 _0943_
*1053 _0944_
*1054 _0945_
*1055 _0946_
*1056 _0947_
*1057 _0948_
*1058 _0949_
*1059 _0950_
*1060 _0951_
*1061 _0952_
*1062 _0953_
*1063 _0954_
*1064 _0955_
*1065 _0956_
*1066 _0957_
*1067 _0958_
*1068 _0959_
*1069 _0960_
*1070 _0961_
*1071 _0962_
*1072 _0963_
*1073 _0964_
*1074 _0965_
*1075 _0966_
*1076 _0967_
*1077 _0968_
*1078 _0969_
*1079 _0970_
*1080 _0971_
*1081 _0972_
*1082 _0973_
*1083 _0974_
*1084 _0975_
*1085 _0976_
*1086 _0977_
*1087 _0978_
*1088 _0979_
*1089 _0980_
*1090 _0981_
*1091 _0982_
*1092 _0983_
*1093 _0984_
*1094 _0985_
*1095 _0986_
*1096 _0987_
*1097 _0988_
*1098 _0989_
*1099 _0990_
*1100 _0991_
*1101 _0992_
*1102 _0993_
*1103 _0994_
*1104 _0995_
*1105 _0996_
*1106 _0997_
*1107 _0998_
*1108 _0999_
*1109 _1000_
*1110 _1001_
*1111 _1002_
*1112 _1003_
*1113 _1004_
*1114 _1005_
*1115 _1006_
*1116 _1007_
*1117 _1008_
*1118 _1009_
*1119 _1010_
*1120 _1011_
*1121 _1012_
*1122 _1013_
*1123 _1014_
*1124 _1015_
*1125 net1
*1126 net10
*1127 net100
*1128 net101
*1129 net102
*1130 net103
*1131 net104
*1132 net105
*1133 net106
*1134 net107
*1135 net108
*1136 net109
*1137 net11
*1138 net110
*1139 net111
*1140 net112
*1141 net113
*1142 net114
*1143 net115
*1144 net116
*1145 net117
*1146 net118
*1147 net119
*1148 net12
*1149 net120
*1150 net121
*1151 net122
*1152 net123
*1153 net124
*1154 net125
*1155 net126
*1156 net127
*1157 net128
*1158 net129
*1159 net13
*1160 net130
*1161 net131
*1162 net132
*1163 net133
*1164 net134
*1165 net135
*1166 net136
*1167 net137
*1168 net138
*1169 net139
*1170 net14
*1171 net140
*1172 net141
*1173 net142
*1174 net143
*1175 net144
*1176 net145
*1177 net146
*1178 net147
*1179 net148
*1180 net149
*1181 net15
*1182 net150
*1183 net151
*1184 net152
*1185 net153
*1186 net154
*1187 net155
*1188 net156
*1189 net157
*1190 net158
*1191 net159
*1192 net16
*1193 net160
*1194 net161
*1195 net162
*1196 net163
*1197 net164
*1198 net165
*1199 net166
*1200 net167
*1201 net169
*1202 net17
*1203 net170
*1204 net171
*1205 net172
*1206 net173
*1207 net174
*1208 net175
*1209 net176
*1210 net178
*1211 net179
*1212 net18
*1213 net180
*1214 net181
*1215 net182
*1216 net183
*1217 net184
*1218 net185
*1219 net186
*1220 net187
*1221 net188
*1222 net189
*1223 net19
*1224 net190
*1225 net191
*1226 net192
*1227 net193
*1228 net194
*1229 net195
*1230 net196
*1231 net197
*1232 net198
*1233 net199
*1234 net2
*1235 net20
*1236 net200
*1237 net201
*1238 net202
*1239 net203
*1240 net204
*1241 net205
*1242 net206
*1243 net207
*1244 net208
*1245 net209
*1246 net21
*1247 net210
*1248 net211
*1249 net212
*1250 net213
*1251 net214
*1252 net215
*1253 net216
*1254 net217
*1255 net218
*1256 net219
*1257 net22
*1258 net220
*1259 net221
*1260 net222
*1261 net223
*1262 net224
*1263 net225
*1264 net226
*1265 net227
*1266 net228
*1267 net229
*1268 net23
*1269 net230
*1270 net231
*1271 net232
*1272 net233
*1273 net234
*1274 net235
*1275 net236
*1276 net237
*1277 net238
*1278 net239
*1279 net24
*1280 net240
*1281 net241
*1282 net242
*1283 net243
*1284 net244
*1285 net245
*1286 net246
*1287 net247
*1288 net248
*1289 net249
*1290 net25
*1291 net250
*1292 net251
*1293 net252
*1294 net253
*1295 net254
*1296 net255
*1297 net256
*1298 net257
*1299 net258
*1300 net259
*1301 net26
*1302 net260
*1303 net27
*1304 net272
*1305 net273
*1306 net274
*1307 net275
*1308 net276
*1309 net277
*1310 net278
*1311 net279
*1312 net28
*1313 net280
*1314 net281
*1315 net282
*1316 net283
*1317 net29
*1318 net3
*1319 net30
*1320 net306
*1321 net31
*1322 net32
*1323 net328
*1324 net33
*1325 net330
*1326 net333
*1327 net334
*1328 net335
*1329 net336
*1330 net34
*1331 net35
*1332 net36
*1333 net37
*1334 net38
*1335 net39
*1336 net4
*1337 net40
*1338 net41
*1339 net42
*1340 net43
*1341 net44
*1342 net45
*1343 net46
*1344 net47
*1345 net48
*1346 net49
*1347 net5
*1348 net50
*1349 net51
*1350 net52
*1351 net53
*1352 net54
*1353 net55
*1354 net56
*1355 net57
*1356 net58
*1357 net59
*1358 net6
*1359 net60
*1360 net61
*1361 net62
*1362 net63
*1363 net64
*1364 net65
*1365 net66
*1366 net67
*1367 net68
*1368 net69
*1369 net7
*1370 net70
*1371 net71
*1372 net72
*1373 net73
*1374 net74
*1375 net75
*1376 net76
*1377 net77
*1378 net78
*1379 net79
*1380 net8
*1381 net80
*1382 net81
*1383 net82
*1384 net83
*1385 net84
*1386 net85
*1387 net86
*1388 net87
*1389 net88
*1390 net89
*1391 net9
*1392 net90
*1393 net91
*1394 net92
*1395 net93
*1396 net94
*1397 net95
*1398 net96
*1399 net97
*1400 net98
*1401 net99
*1402 ANTENNA_1
*1403 ANTENNA_2
*1404 FILLER_0_111
*1405 FILLER_0_113
*1406 FILLER_0_117
*1407 FILLER_0_138
*1408 FILLER_0_144
*1409 FILLER_0_152
*1410 FILLER_0_161
*1411 FILLER_0_167
*1412 FILLER_0_182
*1413 FILLER_0_192
*1414 FILLER_0_197
*1415 FILLER_0_202
*1416 FILLER_0_211
*1417 FILLER_0_217
*1418 FILLER_0_222
*1419 FILLER_0_225
*1420 FILLER_0_23
*1421 FILLER_0_242
*1422 FILLER_0_253
*1423 FILLER_0_257
*1424 FILLER_0_261
*1425 FILLER_0_267
*1426 FILLER_0_27
*1427 FILLER_0_278
*1428 FILLER_0_285
*1429 FILLER_0_292
*1430 FILLER_0_302
*1431 FILLER_0_313
*1432 FILLER_0_317
*1433 FILLER_0_32
*1434 FILLER_0_41
*1435 FILLER_0_47
*1436 FILLER_0_51
*1437 FILLER_0_55
*1438 FILLER_0_57
*1439 FILLER_0_61
*1440 FILLER_0_67
*1441 FILLER_0_81
*1442 FILLER_0_85
*1443 FILLER_0_91
*1444 FILLER_0_97
*1445 FILLER_10_105
*1446 FILLER_10_120
*1447 FILLER_10_128
*1448 FILLER_10_145
*1449 FILLER_10_15
*1450 FILLER_10_161
*1451 FILLER_10_174
*1452 FILLER_10_186
*1453 FILLER_10_194
*1454 FILLER_10_197
*1455 FILLER_10_213
*1456 FILLER_10_225
*1457 FILLER_10_237
*1458 FILLER_10_249
*1459 FILLER_10_259
*1460 FILLER_10_265
*1461 FILLER_10_27
*1462 FILLER_10_277
*1463 FILLER_10_284
*1464 FILLER_10_29
*1465 FILLER_10_292
*1466 FILLER_10_3
*1467 FILLER_10_302
*1468 FILLER_10_309
*1469 FILLER_10_41
*1470 FILLER_10_53
*1471 FILLER_10_61
*1472 FILLER_10_72
*1473 FILLER_10_85
*1474 FILLER_11_105
*1475 FILLER_11_111
*1476 FILLER_11_113
*1477 FILLER_11_133
*1478 FILLER_11_145
*1479 FILLER_11_15
*1480 FILLER_11_157
*1481 FILLER_11_165
*1482 FILLER_11_183
*1483 FILLER_11_199
*1484 FILLER_11_216
*1485 FILLER_11_228
*1486 FILLER_11_240
*1487 FILLER_11_250
*1488 FILLER_11_256
*1489 FILLER_11_268
*1490 FILLER_11_27
*1491 FILLER_11_274
*1492 FILLER_11_3
*1493 FILLER_11_308
*1494 FILLER_11_313
*1495 FILLER_11_39
*1496 FILLER_11_48
*1497 FILLER_11_55
*1498 FILLER_11_57
*1499 FILLER_11_69
*1500 FILLER_11_81
*1501 FILLER_11_93
*1502 FILLER_12_110
*1503 FILLER_12_116
*1504 FILLER_12_12
*1505 FILLER_12_141
*1506 FILLER_12_147
*1507 FILLER_12_156
*1508 FILLER_12_167
*1509 FILLER_12_193
*1510 FILLER_12_197
*1511 FILLER_12_215
*1512 FILLER_12_227
*1513 FILLER_12_231
*1514 FILLER_12_24
*1515 FILLER_12_253
*1516 FILLER_12_273
*1517 FILLER_12_281
*1518 FILLER_12_29
*1519 FILLER_12_293
*1520 FILLER_12_316
*1521 FILLER_12_53
*1522 FILLER_12_57
*1523 FILLER_12_61
*1524 FILLER_12_95
*1525 FILLER_13_119
*1526 FILLER_13_125
*1527 FILLER_13_133
*1528 FILLER_13_15
*1529 FILLER_13_150
*1530 FILLER_13_157
*1531 FILLER_13_183
*1532 FILLER_13_195
*1533 FILLER_13_204
*1534 FILLER_13_216
*1535 FILLER_13_237
*1536 FILLER_13_254
*1537 FILLER_13_262
*1538 FILLER_13_27
*1539 FILLER_13_274
*1540 FILLER_13_291
*1541 FILLER_13_3
*1542 FILLER_13_304
*1543 FILLER_13_320
*1544 FILLER_13_39
*1545 FILLER_13_47
*1546 FILLER_13_65
*1547 FILLER_13_94
*1548 FILLER_14_102
*1549 FILLER_14_120
*1550 FILLER_14_124
*1551 FILLER_14_133
*1552 FILLER_14_139
*1553 FILLER_14_141
*1554 FILLER_14_15
*1555 FILLER_14_153
*1556 FILLER_14_165
*1557 FILLER_14_193
*1558 FILLER_14_197
*1559 FILLER_14_201
*1560 FILLER_14_209
*1561 FILLER_14_217
*1562 FILLER_14_226
*1563 FILLER_14_232
*1564 FILLER_14_247
*1565 FILLER_14_251
*1566 FILLER_14_253
*1567 FILLER_14_261
*1568 FILLER_14_27
*1569 FILLER_14_273
*1570 FILLER_14_289
*1571 FILLER_14_29
*1572 FILLER_14_3
*1573 FILLER_14_301
*1574 FILLER_14_307
*1575 FILLER_14_309
*1576 FILLER_14_315
*1577 FILLER_14_319
*1578 FILLER_14_41
*1579 FILLER_14_53
*1580 FILLER_14_65
*1581 FILLER_14_69
*1582 FILLER_14_81
*1583 FILLER_14_85
*1584 FILLER_14_96
*1585 FILLER_15_104
*1586 FILLER_15_113
*1587 FILLER_15_125
*1588 FILLER_15_137
*1589 FILLER_15_15
*1590 FILLER_15_152
*1591 FILLER_15_160
*1592 FILLER_15_165
*1593 FILLER_15_169
*1594 FILLER_15_179
*1595 FILLER_15_187
*1596 FILLER_15_217
*1597 FILLER_15_222
*1598 FILLER_15_234
*1599 FILLER_15_255
*1600 FILLER_15_267
*1601 FILLER_15_27
*1602 FILLER_15_277
*1603 FILLER_15_281
*1604 FILLER_15_286
*1605 FILLER_15_3
*1606 FILLER_15_305
*1607 FILLER_15_39
*1608 FILLER_15_57
*1609 FILLER_15_70
*1610 FILLER_15_76
*1611 FILLER_16_108
*1612 FILLER_16_128
*1613 FILLER_16_15
*1614 FILLER_16_158
*1615 FILLER_16_178
*1616 FILLER_16_184
*1617 FILLER_16_190
*1618 FILLER_16_225
*1619 FILLER_16_237
*1620 FILLER_16_249
*1621 FILLER_16_258
*1622 FILLER_16_266
*1623 FILLER_16_27
*1624 FILLER_16_29
*1625 FILLER_16_295
*1626 FILLER_16_3
*1627 FILLER_16_318
*1628 FILLER_16_33
*1629 FILLER_16_66
*1630 FILLER_16_85
*1631 FILLER_16_96
*1632 FILLER_17_100
*1633 FILLER_17_110
*1634 FILLER_17_127
*1635 FILLER_17_139
*1636 FILLER_17_149
*1637 FILLER_17_15
*1638 FILLER_17_157
*1639 FILLER_17_183
*1640 FILLER_17_205
*1641 FILLER_17_220
*1642 FILLER_17_225
*1643 FILLER_17_245
*1644 FILLER_17_257
*1645 FILLER_17_269
*1646 FILLER_17_27
*1647 FILLER_17_275
*1648 FILLER_17_279
*1649 FILLER_17_281
*1650 FILLER_17_293
*1651 FILLER_17_3
*1652 FILLER_17_308
*1653 FILLER_17_39
*1654 FILLER_17_43
*1655 FILLER_17_51
*1656 FILLER_17_55
*1657 FILLER_17_86
*1658 FILLER_18_106
*1659 FILLER_18_112
*1660 FILLER_18_138
*1661 FILLER_18_15
*1662 FILLER_18_157
*1663 FILLER_18_165
*1664 FILLER_18_172
*1665 FILLER_18_190
*1666 FILLER_18_197
*1667 FILLER_18_225
*1668 FILLER_18_233
*1669 FILLER_18_245
*1670 FILLER_18_251
*1671 FILLER_18_267
*1672 FILLER_18_27
*1673 FILLER_18_282
*1674 FILLER_18_288
*1675 FILLER_18_29
*1676 FILLER_18_296
*1677 FILLER_18_306
*1678 FILLER_18_321
*1679 FILLER_18_35
*1680 FILLER_18_41
*1681 FILLER_18_53
*1682 FILLER_18_65
*1683 FILLER_18_94
*1684 FILLER_19_110
*1685 FILLER_19_137
*1686 FILLER_19_15
*1687 FILLER_19_175
*1688 FILLER_19_181
*1689 FILLER_19_190
*1690 FILLER_19_221
*1691 FILLER_19_232
*1692 FILLER_19_254
*1693 FILLER_19_266
*1694 FILLER_19_27
*1695 FILLER_19_271
*1696 FILLER_19_279
*1697 FILLER_19_3
*1698 FILLER_19_304
*1699 FILLER_19_320
*1700 FILLER_19_99
*1701 FILLER_1_111
*1702 FILLER_1_123
*1703 FILLER_1_144
*1704 FILLER_1_15
*1705 FILLER_1_150
*1706 FILLER_1_163
*1707 FILLER_1_176
*1708 FILLER_1_196
*1709 FILLER_1_202
*1710 FILLER_1_210
*1711 FILLER_1_223
*1712 FILLER_1_235
*1713 FILLER_1_255
*1714 FILLER_1_267
*1715 FILLER_1_27
*1716 FILLER_1_279
*1717 FILLER_1_281
*1718 FILLER_1_293
*1719 FILLER_1_3
*1720 FILLER_1_305
*1721 FILLER_1_317
*1722 FILLER_1_321
*1723 FILLER_1_39
*1724 FILLER_1_51
*1725 FILLER_1_55
*1726 FILLER_1_57
*1727 FILLER_1_69
*1728 FILLER_1_81
*1729 FILLER_1_99
*1730 FILLER_20_104
*1731 FILLER_20_135
*1732 FILLER_20_141
*1733 FILLER_20_15
*1734 FILLER_20_172
*1735 FILLER_20_180
*1736 FILLER_20_195
*1737 FILLER_20_211
*1738 FILLER_20_218
*1739 FILLER_20_227
*1740 FILLER_20_244
*1741 FILLER_20_253
*1742 FILLER_20_265
*1743 FILLER_20_27
*1744 FILLER_20_277
*1745 FILLER_20_289
*1746 FILLER_20_29
*1747 FILLER_20_3
*1748 FILLER_20_301
*1749 FILLER_20_315
*1750 FILLER_20_41
*1751 FILLER_20_54
*1752 FILLER_20_73
*1753 FILLER_20_80
*1754 FILLER_20_85
*1755 FILLER_20_92
*1756 FILLER_21_110
*1757 FILLER_21_113
*1758 FILLER_21_127
*1759 FILLER_21_133
*1760 FILLER_21_146
*1761 FILLER_21_15
*1762 FILLER_21_161
*1763 FILLER_21_167
*1764 FILLER_21_169
*1765 FILLER_21_176
*1766 FILLER_21_180
*1767 FILLER_21_201
*1768 FILLER_21_236
*1769 FILLER_21_240
*1770 FILLER_21_248
*1771 FILLER_21_277
*1772 FILLER_21_291
*1773 FILLER_21_3
*1774 FILLER_21_307
*1775 FILLER_21_320
*1776 FILLER_21_70
*1777 FILLER_21_85
*1778 FILLER_21_91
*1779 FILLER_21_98
*1780 FILLER_22_109
*1781 FILLER_22_118
*1782 FILLER_22_132
*1783 FILLER_22_15
*1784 FILLER_22_150
*1785 FILLER_22_167
*1786 FILLER_22_179
*1787 FILLER_22_183
*1788 FILLER_22_190
*1789 FILLER_22_197
*1790 FILLER_22_206
*1791 FILLER_22_231
*1792 FILLER_22_249
*1793 FILLER_22_27
*1794 FILLER_22_271
*1795 FILLER_22_275
*1796 FILLER_22_282
*1797 FILLER_22_286
*1798 FILLER_22_29
*1799 FILLER_22_293
*1800 FILLER_22_3
*1801 FILLER_22_309
*1802 FILLER_22_77
*1803 FILLER_22_83
*1804 FILLER_22_85
*1805 FILLER_22_89
*1806 FILLER_23_104
*1807 FILLER_23_113
*1808 FILLER_23_140
*1809 FILLER_23_15
*1810 FILLER_23_152
*1811 FILLER_23_191
*1812 FILLER_23_200
*1813 FILLER_23_208
*1814 FILLER_23_221
*1815 FILLER_23_225
*1816 FILLER_23_238
*1817 FILLER_23_250
*1818 FILLER_23_262
*1819 FILLER_23_27
*1820 FILLER_23_274
*1821 FILLER_23_3
*1822 FILLER_23_308
*1823 FILLER_23_318
*1824 FILLER_23_39
*1825 FILLER_23_54
*1826 FILLER_23_60
*1827 FILLER_23_72
*1828 FILLER_23_84
*1829 FILLER_23_92
*1830 FILLER_24_103
*1831 FILLER_24_107
*1832 FILLER_24_119
*1833 FILLER_24_131
*1834 FILLER_24_138
*1835 FILLER_24_141
*1836 FILLER_24_148
*1837 FILLER_24_173
*1838 FILLER_24_187
*1839 FILLER_24_194
*1840 FILLER_24_208
*1841 FILLER_24_21
*1842 FILLER_24_225
*1843 FILLER_24_237
*1844 FILLER_24_241
*1845 FILLER_24_250
*1846 FILLER_24_261
*1847 FILLER_24_27
*1848 FILLER_24_285
*1849 FILLER_24_29
*1850 FILLER_24_297
*1851 FILLER_24_305
*1852 FILLER_24_309
*1853 FILLER_24_41
*1854 FILLER_24_53
*1855 FILLER_24_59
*1856 FILLER_24_64
*1857 FILLER_24_72
*1858 FILLER_24_9
*1859 FILLER_24_94
*1860 FILLER_25_111
*1861 FILLER_25_116
*1862 FILLER_25_136
*1863 FILLER_25_149
*1864 FILLER_25_15
*1865 FILLER_25_165
*1866 FILLER_25_177
*1867 FILLER_25_181
*1868 FILLER_25_193
*1869 FILLER_25_204
*1870 FILLER_25_212
*1871 FILLER_25_219
*1872 FILLER_25_223
*1873 FILLER_25_225
*1874 FILLER_25_264
*1875 FILLER_25_279
*1876 FILLER_25_281
*1877 FILLER_25_285
*1878 FILLER_25_294
*1879 FILLER_25_3
*1880 FILLER_25_320
*1881 FILLER_25_47
*1882 FILLER_25_57
*1883 FILLER_25_71
*1884 FILLER_25_91
*1885 FILLER_26_104
*1886 FILLER_26_109
*1887 FILLER_26_127
*1888 FILLER_26_139
*1889 FILLER_26_141
*1890 FILLER_26_15
*1891 FILLER_26_153
*1892 FILLER_26_160
*1893 FILLER_26_168
*1894 FILLER_26_176
*1895 FILLER_26_188
*1896 FILLER_26_206
*1897 FILLER_26_210
*1898 FILLER_26_232
*1899 FILLER_26_240
*1900 FILLER_26_251
*1901 FILLER_26_260
*1902 FILLER_26_27
*1903 FILLER_26_29
*1904 FILLER_26_295
*1905 FILLER_26_3
*1906 FILLER_26_300
*1907 FILLER_26_309
*1908 FILLER_26_320
*1909 FILLER_26_37
*1910 FILLER_26_45
*1911 FILLER_26_65
*1912 FILLER_26_83
*1913 FILLER_26_85
*1914 FILLER_26_96
*1915 FILLER_27_109
*1916 FILLER_27_113
*1917 FILLER_27_125
*1918 FILLER_27_144
*1919 FILLER_27_15
*1920 FILLER_27_153
*1921 FILLER_27_164
*1922 FILLER_27_169
*1923 FILLER_27_195
*1924 FILLER_27_209
*1925 FILLER_27_213
*1926 FILLER_27_222
*1927 FILLER_27_235
*1928 FILLER_27_247
*1929 FILLER_27_259
*1930 FILLER_27_27
*1931 FILLER_27_271
*1932 FILLER_27_279
*1933 FILLER_27_281
*1934 FILLER_27_293
*1935 FILLER_27_3
*1936 FILLER_27_39
*1937 FILLER_27_53
*1938 FILLER_27_73
*1939 FILLER_27_79
*1940 FILLER_27_85
*1941 FILLER_27_97
*1942 FILLER_28_116
*1943 FILLER_28_120
*1944 FILLER_28_129
*1945 FILLER_28_139
*1946 FILLER_28_15
*1947 FILLER_28_165
*1948 FILLER_28_175
*1949 FILLER_28_183
*1950 FILLER_28_191
*1951 FILLER_28_195
*1952 FILLER_28_203
*1953 FILLER_28_208
*1954 FILLER_28_220
*1955 FILLER_28_250
*1956 FILLER_28_259
*1957 FILLER_28_266
*1958 FILLER_28_27
*1959 FILLER_28_270
*1960 FILLER_28_275
*1961 FILLER_28_29
*1962 FILLER_28_294
*1963 FILLER_28_3
*1964 FILLER_28_300
*1965 FILLER_28_309
*1966 FILLER_28_35
*1967 FILLER_28_42
*1968 FILLER_28_67
*1969 FILLER_28_81
*1970 FILLER_28_90
*1971 FILLER_28_97
*1972 FILLER_29_111
*1973 FILLER_29_113
*1974 FILLER_29_129
*1975 FILLER_29_141
*1976 FILLER_29_15
*1977 FILLER_29_153
*1978 FILLER_29_161
*1979 FILLER_29_167
*1980 FILLER_29_169
*1981 FILLER_29_181
*1982 FILLER_29_189
*1983 FILLER_29_201
*1984 FILLER_29_213
*1985 FILLER_29_219
*1986 FILLER_29_223
*1987 FILLER_29_237
*1988 FILLER_29_259
*1989 FILLER_29_27
*1990 FILLER_29_279
*1991 FILLER_29_281
*1992 FILLER_29_285
*1993 FILLER_29_3
*1994 FILLER_29_310
*1995 FILLER_29_54
*1996 FILLER_29_57
*1997 FILLER_29_72
*1998 FILLER_29_82
*1999 FILLER_29_90
*2000 FILLER_2_104
*2001 FILLER_2_137
*2002 FILLER_2_141
*2003 FILLER_2_15
*2004 FILLER_2_160
*2005 FILLER_2_176
*2006 FILLER_2_186
*2007 FILLER_2_192
*2008 FILLER_2_197
*2009 FILLER_2_251
*2010 FILLER_2_253
*2011 FILLER_2_261
*2012 FILLER_2_27
*2013 FILLER_2_273
*2014 FILLER_2_277
*2015 FILLER_2_281
*2016 FILLER_2_29
*2017 FILLER_2_293
*2018 FILLER_2_3
*2019 FILLER_2_305
*2020 FILLER_2_309
*2021 FILLER_2_321
*2022 FILLER_2_41
*2023 FILLER_2_53
*2024 FILLER_2_65
*2025 FILLER_2_77
*2026 FILLER_2_83
*2027 FILLER_2_96
*2028 FILLER_30_115
*2029 FILLER_30_12
*2030 FILLER_30_123
*2031 FILLER_30_129
*2032 FILLER_30_137
*2033 FILLER_30_141
*2034 FILLER_30_147
*2035 FILLER_30_162
*2036 FILLER_30_171
*2037 FILLER_30_201
*2038 FILLER_30_220
*2039 FILLER_30_237
*2040 FILLER_30_24
*2041 FILLER_30_245
*2042 FILLER_30_260
*2043 FILLER_30_272
*2044 FILLER_30_284
*2045 FILLER_30_29
*2046 FILLER_30_296
*2047 FILLER_30_319
*2048 FILLER_30_40
*2049 FILLER_30_52