* NGSPICE file created from alu32.ext - technology: sky130A

* Black-box entry subcircuit for sky130_fd_sc_hd__decap_8 abstract view
.subckt sky130_fd_sc_hd__decap_8 VGND VNB VPB VPWR
.ends

* Black-box entry subcircuit for sky130_fd_sc_hd__xnor2_1 abstract view
.subckt sky130_fd_sc_hd__xnor2_1 A B VGND VNB VPB VPWR Y
.ends

* Black-box entry subcircuit for sky130_fd_sc_hd__tapvpwrvgnd_1 abstract view
.subckt sky130_fd_sc_hd__tapvpwrvgnd_1 VGND VPWR
.ends

* Black-box entry subcircuit for sky130_ef_sc_hd__decap_12 abstract view
.subckt sky130_ef_sc_hd__decap_12 VPWR VGND VPB VNB
.ends

* Black-box entry subcircuit for sky130_fd_sc_hd__decap_6 abstract view
.subckt sky130_fd_sc_hd__decap_6 VGND VNB VPB VPWR
.ends

* Black-box entry subcircuit for sky130_fd_sc_hd__decap_4 abstract view
.subckt sky130_fd_sc_hd__decap_4 VGND VNB VPB VPWR
.ends

* Black-box entry subcircuit for sky130_fd_sc_hd__fill_2 abstract view
.subckt sky130_fd_sc_hd__fill_2 VGND VNB VPB VPWR
.ends

* Black-box entry subcircuit for sky130_fd_sc_hd__dlygate4sd1_1 abstract view
.subckt sky130_fd_sc_hd__dlygate4sd1_1 A VGND VNB VPB VPWR X
.ends

* Black-box entry subcircuit for sky130_fd_sc_hd__a31o_1 abstract view
.subckt sky130_fd_sc_hd__a31o_1 A1 A2 A3 B1 VGND VNB VPB VPWR X
.ends

* Black-box entry subcircuit for sky130_fd_sc_hd__fill_1 abstract view
.subckt sky130_fd_sc_hd__fill_1 VGND VNB VPB VPWR
.ends

* Black-box entry subcircuit for sky130_fd_sc_hd__and2_1 abstract view
.subckt sky130_fd_sc_hd__and2_1 A B VGND VNB VPB VPWR X
.ends

* Black-box entry subcircuit for sky130_fd_sc_hd__a22o_1 abstract view
.subckt sky130_fd_sc_hd__a22o_1 A1 A2 B1 B2 VGND VNB VPB VPWR X
.ends

* Black-box entry subcircuit for sky130_fd_sc_hd__o221a_1 abstract view
.subckt sky130_fd_sc_hd__o221a_1 A1 A2 B1 B2 C1 VGND VNB VPB VPWR X
.ends

* Black-box entry subcircuit for sky130_fd_sc_hd__buf_2 abstract view
.subckt sky130_fd_sc_hd__buf_2 A VGND VNB VPB VPWR X
.ends

* Black-box entry subcircuit for sky130_fd_sc_hd__nand2_1 abstract view
.subckt sky130_fd_sc_hd__nand2_1 A B VGND VNB VPB VPWR Y
.ends

* Black-box entry subcircuit for sky130_fd_sc_hd__clkbuf_4 abstract view
.subckt sky130_fd_sc_hd__clkbuf_4 A VGND VNB VPB VPWR X
.ends

* Black-box entry subcircuit for sky130_fd_sc_hd__mux2_1 abstract view
.subckt sky130_fd_sc_hd__mux2_1 A0 A1 S VGND VNB VPB VPWR X
.ends

* Black-box entry subcircuit for sky130_fd_sc_hd__mux4_1 abstract view
.subckt sky130_fd_sc_hd__mux4_1 A0 A1 A2 A3 S0 S1 VGND VNB VPB VPWR X
.ends

* Black-box entry subcircuit for sky130_fd_sc_hd__decap_3 abstract view
.subckt sky130_fd_sc_hd__decap_3 VGND VNB VPB VPWR
.ends

* Black-box entry subcircuit for sky130_fd_sc_hd__o211ai_1 abstract view
.subckt sky130_fd_sc_hd__o211ai_1 A1 A2 B1 C1 VGND VNB VPB VPWR Y
.ends

* Black-box entry subcircuit for sky130_fd_sc_hd__a211o_1 abstract view
.subckt sky130_fd_sc_hd__a211o_1 A1 A2 B1 C1 VGND VNB VPB VPWR X
.ends

* Black-box entry subcircuit for sky130_fd_sc_hd__a221o_1 abstract view
.subckt sky130_fd_sc_hd__a221o_1 A1 A2 B1 B2 C1 VGND VNB VPB VPWR X
.ends

* Black-box entry subcircuit for sky130_fd_sc_hd__a21o_1 abstract view
.subckt sky130_fd_sc_hd__a21o_1 A1 A2 B1 VGND VNB VPB VPWR X
.ends

* Black-box entry subcircuit for sky130_fd_sc_hd__nor2_1 abstract view
.subckt sky130_fd_sc_hd__nor2_1 A B VGND VNB VPB VPWR Y
.ends

* Black-box entry subcircuit for sky130_fd_sc_hd__or2_1 abstract view
.subckt sky130_fd_sc_hd__or2_1 A B VGND VNB VPB VPWR X
.ends

* Black-box entry subcircuit for sky130_fd_sc_hd__inv_2 abstract view
.subckt sky130_fd_sc_hd__inv_2 A VGND VNB VPB VPWR Y
.ends

* Black-box entry subcircuit for sky130_fd_sc_hd__a2bb2o_4 abstract view
.subckt sky130_fd_sc_hd__a2bb2o_4 A1_N A2_N B1 B2 VGND VNB VPB VPWR X
.ends

* Black-box entry subcircuit for sky130_fd_sc_hd__o21ai_1 abstract view
.subckt sky130_fd_sc_hd__o21ai_1 A1 A2 B1 VGND VNB VPB VPWR Y
.ends

* Black-box entry subcircuit for sky130_fd_sc_hd__o21a_1 abstract view
.subckt sky130_fd_sc_hd__o21a_1 A1 A2 B1 VGND VNB VPB VPWR X
.ends

* Black-box entry subcircuit for sky130_fd_sc_hd__buf_6 abstract view
.subckt sky130_fd_sc_hd__buf_6 A VGND VNB VPB VPWR X
.ends

* Black-box entry subcircuit for sky130_fd_sc_hd__a21bo_1 abstract view
.subckt sky130_fd_sc_hd__a21bo_1 A1 A2 B1_N VGND VNB VPB VPWR X
.ends

* Black-box entry subcircuit for sky130_fd_sc_hd__clkbuf_2 abstract view
.subckt sky130_fd_sc_hd__clkbuf_2 A VGND VNB VPB VPWR X
.ends

* Black-box entry subcircuit for sky130_fd_sc_hd__buf_8 abstract view
.subckt sky130_fd_sc_hd__buf_8 A VGND VNB VPB VPWR X
.ends

* Black-box entry subcircuit for sky130_fd_sc_hd__a22oi_1 abstract view
.subckt sky130_fd_sc_hd__a22oi_1 A1 A2 B1 B2 VGND VNB VPB VPWR Y
.ends

* Black-box entry subcircuit for sky130_fd_sc_hd__nand2_2 abstract view
.subckt sky130_fd_sc_hd__nand2_2 A B VGND VNB VPB VPWR Y
.ends

* Black-box entry subcircuit for sky130_fd_sc_hd__xnor2_2 abstract view
.subckt sky130_fd_sc_hd__xnor2_2 A B VGND VNB VPB VPWR Y
.ends

* Black-box entry subcircuit for sky130_fd_sc_hd__o211a_1 abstract view
.subckt sky130_fd_sc_hd__o211a_1 A1 A2 B1 C1 VGND VNB VPB VPWR X
.ends

* Black-box entry subcircuit for sky130_fd_sc_hd__o31a_1 abstract view
.subckt sky130_fd_sc_hd__o31a_1 A1 A2 A3 B1 VGND VNB VPB VPWR X
.ends

* Black-box entry subcircuit for sky130_fd_sc_hd__o22a_1 abstract view
.subckt sky130_fd_sc_hd__o22a_1 A1 A2 B1 B2 VGND VNB VPB VPWR X
.ends

* Black-box entry subcircuit for sky130_fd_sc_hd__a21oi_1 abstract view
.subckt sky130_fd_sc_hd__a21oi_1 A1 A2 B1 VGND VNB VPB VPWR Y
.ends

* Black-box entry subcircuit for sky130_fd_sc_hd__a2bb2o_1 abstract view
.subckt sky130_fd_sc_hd__a2bb2o_1 A1_N A2_N B1 B2 VGND VNB VPB VPWR X
.ends

* Black-box entry subcircuit for sky130_fd_sc_hd__o2bb2a_1 abstract view
.subckt sky130_fd_sc_hd__o2bb2a_1 A1_N A2_N B1 B2 VGND VNB VPB VPWR X
.ends

* Black-box entry subcircuit for sky130_fd_sc_hd__a31oi_2 abstract view
.subckt sky130_fd_sc_hd__a31oi_2 A1 A2 A3 B1 VGND VNB VPB VPWR Y
.ends

* Black-box entry subcircuit for sky130_fd_sc_hd__and3_1 abstract view
.subckt sky130_fd_sc_hd__and3_1 A B C VGND VNB VPB VPWR X
.ends

* Black-box entry subcircuit for sky130_fd_sc_hd__a311oi_4 abstract view
.subckt sky130_fd_sc_hd__a311oi_4 A1 A2 A3 B1 C1 VGND VNB VPB VPWR Y
.ends

* Black-box entry subcircuit for sky130_fd_sc_hd__a211o_4 abstract view
.subckt sky130_fd_sc_hd__a211o_4 A1 A2 B1 C1 VGND VNB VPB VPWR X
.ends

* Black-box entry subcircuit for sky130_fd_sc_hd__xor2_1 abstract view
.subckt sky130_fd_sc_hd__xor2_1 A B VGND VNB VPB VPWR X
.ends

* Black-box entry subcircuit for sky130_fd_sc_hd__a21oi_4 abstract view
.subckt sky130_fd_sc_hd__a21oi_4 A1 A2 B1 VGND VNB VPB VPWR Y
.ends

* Black-box entry subcircuit for sky130_fd_sc_hd__mux2_2 abstract view
.subckt sky130_fd_sc_hd__mux2_2 A0 A1 S VGND VNB VPB VPWR X
.ends

* Black-box entry subcircuit for sky130_fd_sc_hd__o311a_1 abstract view
.subckt sky130_fd_sc_hd__o311a_1 A1 A2 A3 B1 C1 VGND VNB VPB VPWR X
.ends

* Black-box entry subcircuit for sky130_fd_sc_hd__buf_4 abstract view
.subckt sky130_fd_sc_hd__buf_4 A VGND VNB VPB VPWR X
.ends

* Black-box entry subcircuit for sky130_fd_sc_hd__a211oi_2 abstract view
.subckt sky130_fd_sc_hd__a211oi_2 A1 A2 B1 C1 VGND VNB VPB VPWR Y
.ends

* Black-box entry subcircuit for sky130_fd_sc_hd__or3_4 abstract view
.subckt sky130_fd_sc_hd__or3_4 A B C VGND VNB VPB VPWR X
.ends

* Black-box entry subcircuit for sky130_fd_sc_hd__o2bb2a_4 abstract view
.subckt sky130_fd_sc_hd__o2bb2a_4 A1_N A2_N B1 B2 VGND VNB VPB VPWR X
.ends

* Black-box entry subcircuit for sky130_fd_sc_hd__nand2b_1 abstract view
.subckt sky130_fd_sc_hd__nand2b_1 A_N B VGND VNB VPB VPWR Y
.ends

* Black-box entry subcircuit for sky130_fd_sc_hd__and2_4 abstract view
.subckt sky130_fd_sc_hd__and2_4 A B VGND VNB VPB VPWR X
.ends

* Black-box entry subcircuit for sky130_fd_sc_hd__nor2_2 abstract view
.subckt sky130_fd_sc_hd__nor2_2 A B VGND VNB VPB VPWR Y
.ends

* Black-box entry subcircuit for sky130_fd_sc_hd__and2b_1 abstract view
.subckt sky130_fd_sc_hd__and2b_1 A_N B VGND VNB VPB VPWR X
.ends

* Black-box entry subcircuit for sky130_fd_sc_hd__and2_2 abstract view
.subckt sky130_fd_sc_hd__and2_2 A B VGND VNB VPB VPWR X
.ends

* Black-box entry subcircuit for sky130_fd_sc_hd__nor2_4 abstract view
.subckt sky130_fd_sc_hd__nor2_4 A B VGND VNB VPB VPWR Y
.ends

* Black-box entry subcircuit for sky130_fd_sc_hd__nor3_1 abstract view
.subckt sky130_fd_sc_hd__nor3_1 A B C VGND VNB VPB VPWR Y
.ends

* Black-box entry subcircuit for sky130_fd_sc_hd__or3b_4 abstract view
.subckt sky130_fd_sc_hd__or3b_4 A B C_N VGND VNB VPB VPWR X
.ends

* Black-box entry subcircuit for sky130_fd_sc_hd__or3_1 abstract view
.subckt sky130_fd_sc_hd__or3_1 A B C VGND VNB VPB VPWR X
.ends

* Black-box entry subcircuit for sky130_fd_sc_hd__or2_2 abstract view
.subckt sky130_fd_sc_hd__or2_2 A B VGND VNB VPB VPWR X
.ends

* Black-box entry subcircuit for sky130_fd_sc_hd__or2_4 abstract view
.subckt sky130_fd_sc_hd__or2_4 A B VGND VNB VPB VPWR X
.ends

* Black-box entry subcircuit for sky130_fd_sc_hd__o221a_4 abstract view
.subckt sky130_fd_sc_hd__o221a_4 A1 A2 B1 B2 C1 VGND VNB VPB VPWR X
.ends

* Black-box entry subcircuit for sky130_fd_sc_hd__and3b_1 abstract view
.subckt sky130_fd_sc_hd__and3b_1 A_N B C VGND VNB VPB VPWR X
.ends

* Black-box entry subcircuit for sky130_fd_sc_hd__nor2_8 abstract view
.subckt sky130_fd_sc_hd__nor2_8 A B VGND VNB VPB VPWR Y
.ends

* Black-box entry subcircuit for sky130_fd_sc_hd__nand2_4 abstract view
.subckt sky130_fd_sc_hd__nand2_4 A B VGND VNB VPB VPWR Y
.ends

* Black-box entry subcircuit for sky130_fd_sc_hd__a311o_1 abstract view
.subckt sky130_fd_sc_hd__a311o_1 A1 A2 A3 B1 C1 VGND VNB VPB VPWR X
.ends

* Black-box entry subcircuit for sky130_fd_sc_hd__or4b_4 abstract view
.subckt sky130_fd_sc_hd__or4b_4 A B C D_N VGND VNB VPB VPWR X
.ends

* Black-box entry subcircuit for sky130_fd_sc_hd__or4_1 abstract view
.subckt sky130_fd_sc_hd__or4_1 A B C D VGND VNB VPB VPWR X
.ends

* Black-box entry subcircuit for sky130_fd_sc_hd__o21bai_1 abstract view
.subckt sky130_fd_sc_hd__o21bai_1 A1 A2 B1_N VGND VNB VPB VPWR Y
.ends

* Black-box entry subcircuit for sky130_fd_sc_hd__and4bb_1 abstract view
.subckt sky130_fd_sc_hd__and4bb_1 A_N B_N C D VGND VNB VPB VPWR X
.ends

* Black-box entry subcircuit for sky130_fd_sc_hd__or3b_1 abstract view
.subckt sky130_fd_sc_hd__or3b_1 A B C_N VGND VNB VPB VPWR X
.ends

* Black-box entry subcircuit for sky130_fd_sc_hd__or3_2 abstract view
.subckt sky130_fd_sc_hd__or3_2 A B C VGND VNB VPB VPWR X
.ends

* Black-box entry subcircuit for sky130_fd_sc_hd__o2111a_1 abstract view
.subckt sky130_fd_sc_hd__o2111a_1 A1 A2 B1 C1 D1 VGND VNB VPB VPWR X
.ends

* Black-box entry subcircuit for sky130_fd_sc_hd__and3_4 abstract view
.subckt sky130_fd_sc_hd__and3_4 A B C VGND VNB VPB VPWR X
.ends

* Black-box entry subcircuit for sky130_fd_sc_hd__clkbuf_1 abstract view
.subckt sky130_fd_sc_hd__clkbuf_1 A VGND VNB VPB VPWR X
.ends

* Black-box entry subcircuit for sky130_fd_sc_hd__inv_4 abstract view
.subckt sky130_fd_sc_hd__inv_4 A VGND VNB VPB VPWR Y
.ends

* Black-box entry subcircuit for sky130_fd_sc_hd__buf_1 abstract view
.subckt sky130_fd_sc_hd__buf_1 A VGND VNB VPB VPWR X
.ends

* Black-box entry subcircuit for sky130_fd_sc_hd__o2bb2ai_1 abstract view
.subckt sky130_fd_sc_hd__o2bb2ai_1 A1_N A2_N B1 B2 VGND VNB VPB VPWR Y
.ends

* Black-box entry subcircuit for sky130_fd_sc_hd__a21bo_4 abstract view
.subckt sky130_fd_sc_hd__a21bo_4 A1 A2 B1_N VGND VNB VPB VPWR X
.ends

* Black-box entry subcircuit for sky130_fd_sc_hd__dlymetal6s2s_1 abstract view
.subckt sky130_fd_sc_hd__dlymetal6s2s_1 A VGND VNB VPB VPWR X
.ends

* Black-box entry subcircuit for sky130_fd_sc_hd__mux4_2 abstract view
.subckt sky130_fd_sc_hd__mux4_2 A0 A1 A2 A3 S0 S1 VGND VNB VPB VPWR X
.ends

* Black-box entry subcircuit for sky130_fd_sc_hd__nand2_8 abstract view
.subckt sky130_fd_sc_hd__nand2_8 A B VGND VNB VPB VPWR Y
.ends

* Black-box entry subcircuit for sky130_fd_sc_hd__a21oi_2 abstract view
.subckt sky130_fd_sc_hd__a21oi_2 A1 A2 B1 VGND VNB VPB VPWR Y
.ends

* Black-box entry subcircuit for sky130_fd_sc_hd__and4b_1 abstract view
.subckt sky130_fd_sc_hd__and4b_1 A_N B C D VGND VNB VPB VPWR X
.ends

* Black-box entry subcircuit for sky130_fd_sc_hd__o21bai_4 abstract view
.subckt sky130_fd_sc_hd__o21bai_4 A1 A2 B1_N VGND VNB VPB VPWR Y
.ends

* Black-box entry subcircuit for sky130_fd_sc_hd__a31oi_1 abstract view
.subckt sky130_fd_sc_hd__a31oi_1 A1 A2 A3 B1 VGND VNB VPB VPWR Y
.ends

* Black-box entry subcircuit for sky130_fd_sc_hd__a2bb2oi_1 abstract view
.subckt sky130_fd_sc_hd__a2bb2oi_1 A1_N A2_N B1 B2 VGND VNB VPB VPWR Y
.ends

* Black-box entry subcircuit for sky130_fd_sc_hd__a32o_1 abstract view
.subckt sky130_fd_sc_hd__a32o_1 A1 A2 A3 B1 B2 VGND VNB VPB VPWR X
.ends

* Black-box entry subcircuit for sky130_fd_sc_hd__nor4b_2 abstract view
.subckt sky130_fd_sc_hd__nor4b_2 A B C D_N VGND VNB VPB VPWR Y
.ends

* Black-box entry subcircuit for sky130_fd_sc_hd__a31o_4 abstract view
.subckt sky130_fd_sc_hd__a31o_4 A1 A2 A3 B1 VGND VNB VPB VPWR X
.ends

* Black-box entry subcircuit for sky130_fd_sc_hd__o32a_4 abstract view
.subckt sky130_fd_sc_hd__o32a_4 A1 A2 A3 B1 B2 VGND VNB VPB VPWR X
.ends

* Black-box entry subcircuit for sky130_fd_sc_hd__or4_4 abstract view
.subckt sky130_fd_sc_hd__or4_4 A B C D VGND VNB VPB VPWR X
.ends

* Black-box entry subcircuit for sky130_fd_sc_hd__a32o_2 abstract view
.subckt sky130_fd_sc_hd__a32o_2 A1 A2 A3 B1 B2 VGND VNB VPB VPWR X
.ends

* Black-box entry subcircuit for sky130_fd_sc_hd__a21boi_1 abstract view
.subckt sky130_fd_sc_hd__a21boi_1 A1 A2 B1_N VGND VNB VPB VPWR Y
.ends

* Black-box entry subcircuit for sky130_fd_sc_hd__or4b_1 abstract view
.subckt sky130_fd_sc_hd__or4b_1 A B C D_N VGND VNB VPB VPWR X
.ends

* Black-box entry subcircuit for sky130_fd_sc_hd__a221oi_1 abstract view
.subckt sky130_fd_sc_hd__a221oi_1 A1 A2 B1 B2 C1 VGND VNB VPB VPWR Y
.ends

* Black-box entry subcircuit for sky130_fd_sc_hd__o22ai_1 abstract view
.subckt sky130_fd_sc_hd__o22ai_1 A1 A2 B1 B2 VGND VNB VPB VPWR Y
.ends

* Black-box entry subcircuit for sky130_fd_sc_hd__o211a_4 abstract view
.subckt sky130_fd_sc_hd__o211a_4 A1 A2 B1 C1 VGND VNB VPB VPWR X
.ends

* Black-box entry subcircuit for sky130_fd_sc_hd__o32a_1 abstract view
.subckt sky130_fd_sc_hd__o32a_1 A1 A2 A3 B1 B2 VGND VNB VPB VPWR X
.ends

* Black-box entry subcircuit for sky130_fd_sc_hd__and4_1 abstract view
.subckt sky130_fd_sc_hd__and4_1 A B C D VGND VNB VPB VPWR X
.ends

* Black-box entry subcircuit for sky130_fd_sc_hd__o32ai_4 abstract view
.subckt sky130_fd_sc_hd__o32ai_4 A1 A2 A3 B1 B2 VGND VNB VPB VPWR Y
.ends

* Black-box entry subcircuit for sky130_fd_sc_hd__o21ai_4 abstract view
.subckt sky130_fd_sc_hd__o21ai_4 A1 A2 B1 VGND VNB VPB VPWR Y
.ends

* Black-box entry subcircuit for sky130_fd_sc_hd__a21boi_2 abstract view
.subckt sky130_fd_sc_hd__a21boi_2 A1 A2 B1_N VGND VNB VPB VPWR Y
.ends

* Black-box entry subcircuit for sky130_fd_sc_hd__diode_2 abstract view
.subckt sky130_fd_sc_hd__diode_2 DIODE VGND VNB VPB VPWR
.ends

* Black-box entry subcircuit for sky130_fd_sc_hd__nand3_1 abstract view
.subckt sky130_fd_sc_hd__nand3_1 A B C VGND VNB VPB VPWR Y
.ends

* Black-box entry subcircuit for sky130_fd_sc_hd__and3_2 abstract view
.subckt sky130_fd_sc_hd__and3_2 A B C VGND VNB VPB VPWR X
.ends

.subckt alu32 A[0] A[10] A[11] A[12] A[13] A[14] A[15] A[16] A[17] A[18] A[19] A[1]
+ A[20] A[21] A[22] A[23] A[24] A[25] A[26] A[27] A[28] A[29] A[2] A[30] A[31] A[3]
+ A[4] A[5] A[6] A[7] A[8] A[9] B[0] B[10] B[11] B[12] B[13] B[14] B[15] B[16] B[17]
+ B[18] B[19] B[1] B[20] B[21] B[22] B[23] B[24] B[25] B[26] B[27] B[28] B[29] B[2]
+ B[30] B[31] B[3] B[4] B[5] B[6] B[7] B[8] B[9] C N P Result[0] Result[10] Result[11]
+ Result[12] Result[13] Result[14] Result[15] Result[16] Result[17] Result[18] Result[19]
+ Result[1] Result[20] Result[21] Result[22] Result[23] Result[24] Result[25] Result[26]
+ Result[27] Result[28] Result[29] Result[2] Result[30] Result[31] Result[3] Result[4]
+ Result[5] Result[6] Result[7] Result[8] Result[9] V VGND VPWR Z alu_opcode[0] alu_opcode[1]
+ alu_opcode[2] alu_opcode[3] alu_opcode[4]
XFILLER_36_19 VGND VGND VPWR VPWR sky130_fd_sc_hd__decap_8
X_2037_ net73 net84 VGND VGND VPWR VPWR _0129_ sky130_fd_sc_hd__xnor2_1
XTAP_TAPCELL_ROW_52_404 VGND VPWR sky130_fd_sc_hd__tapvpwrvgnd_1
XFILLER_52_29 VPWR VGND VPWR VGND sky130_ef_sc_hd__decap_12
XFILLER_53_291 VGND VGND VPWR VPWR sky130_fd_sc_hd__decap_6
XFILLER_45_258 VGND VGND VPWR VPWR sky130_fd_sc_hd__decap_4
XFILLER_26_96 VGND VGND VPWR VPWR sky130_fd_sc_hd__decap_8
XFILLER_26_85 VGND VGND VPWR VPWR sky130_fd_sc_hd__fill_2
XFILLER_13_133 VGND VGND VPWR VPWR sky130_fd_sc_hd__decap_4
Xrebuffer7 _0661_ VGND VGND VPWR VPWR net259 sky130_fd_sc_hd__dlygate4sd1_1
X_1270_ _0396_ _0398_ _0399_ net126 VGND VGND VPWR VPWR _0400_ sky130_fd_sc_hd__a31o_1
XFILLER_51_217 VGND VGND VPWR VPWR sky130_fd_sc_hd__fill_1
X_1606_ net183 net39 VGND VGND VPWR VPWR _0724_ sky130_fd_sc_hd__and2_1
XTAP_TAPCELL_ROW_14_194 VGND VPWR sky130_fd_sc_hd__tapvpwrvgnd_1
X_1537_ net111 _0653_ _0657_ net113 VGND VGND VPWR VPWR _0658_ sky130_fd_sc_hd__a22o_1
X_1399_ net228 net118 _0519_ net159 _0524_ VGND VGND VPWR VPWR _0525_ sky130_fd_sc_hd__o221a_1
Xfanout127 net128 VGND VGND VPWR VPWR net127 sky130_fd_sc_hd__buf_2
X_1468_ net242 net34 VGND VGND VPWR VPWR _0591_ sky130_fd_sc_hd__nand2_1
Xfanout116 _0257_ VGND VGND VPWR VPWR net116 sky130_fd_sc_hd__buf_2
Xfanout149 net150 VGND VGND VPWR VPWR net149 sky130_fd_sc_hd__clkbuf_4
Xfanout138 _0206_ VGND VGND VPWR VPWR net138 sky130_fd_sc_hd__buf_2
XFILLER_42_239 VPWR VGND VPWR VGND sky130_ef_sc_hd__decap_12
XFILLER_42_217 VPWR VGND VPWR VGND sky130_ef_sc_hd__decap_12
XFILLER_27_247 VPWR VGND VPWR VGND sky130_ef_sc_hd__decap_12
XFILLER_50_261 VGND VGND VPWR VPWR sky130_fd_sc_hd__fill_2
XFILLER_37_51 VGND VGND VPWR VPWR sky130_fd_sc_hd__decap_4
XFILLER_18_225 VGND VGND VPWR VPWR sky130_fd_sc_hd__decap_8
XFILLER_53_61 VGND VGND VPWR VPWR sky130_fd_sc_hd__decap_6
XFILLER_5_140 VGND VGND VPWR VPWR sky130_fd_sc_hd__decap_6
XTAP_TAPCELL_ROW_11_175 VGND VPWR sky130_fd_sc_hd__tapvpwrvgnd_1
X_1253_ _0279_ _0306_ net178 VGND VGND VPWR VPWR _0383_ sky130_fd_sc_hd__mux2_1
X_1322_ net28 net27 net26 net23 net217 net208 VGND VGND VPWR VPWR _0450_ sky130_fd_sc_hd__mux4_1
XFILLER_5_184 VGND VGND VPWR VPWR sky130_fd_sc_hd__decap_3
X_1184_ net198 net161 net141 _0314_ VGND VGND VPWR VPWR _0315_ sky130_fd_sc_hd__o211ai_1
XTAP_TAPCELL_ROW_19_220 VGND VPWR sky130_fd_sc_hd__tapvpwrvgnd_1
XFILLER_15_217 VGND VGND VPWR VPWR sky130_fd_sc_hd__fill_2
XFILLER_23_250 VPWR VGND VPWR VGND sky130_ef_sc_hd__decap_12
XFILLER_2_176 VGND VGND VPWR VPWR sky130_fd_sc_hd__decap_6
XFILLER_0_57 VGND VGND VPWR VPWR sky130_fd_sc_hd__fill_1
XTAP_TAPCELL_ROW_16_201 VGND VPWR sky130_fd_sc_hd__tapvpwrvgnd_1
X_1871_ net112 _0576_ _0978_ net107 VGND VGND VPWR VPWR _0979_ sky130_fd_sc_hd__a211o_1
X_1940_ _0260_ _0028_ _0027_ VGND VGND VPWR VPWR _0029_ sky130_fd_sc_hd__mux2_1
XFILLER_14_261 VPWR VGND VPWR VGND sky130_ef_sc_hd__decap_12
XFILLER_50_3 VPWR VGND VPWR VGND sky130_ef_sc_hd__decap_12
X_1236_ net193 net136 net133 net233 _0365_ VGND VGND VPWR VPWR _0366_ sky130_fd_sc_hd__a221o_1
X_1305_ _0407_ _0402_ _0406_ VGND VGND VPWR VPWR _0433_ sky130_fd_sc_hd__a21o_1
X_1098_ net191 net117 VGND VGND VPWR VPWR _0231_ sky130_fd_sc_hd__nor2_1
X_1167_ net211 _0297_ VGND VGND VPWR VPWR _0299_ sky130_fd_sc_hd__or2_1
XTAP_TAPCELL_ROW_30_281 VGND VPWR sky130_fd_sc_hd__tapvpwrvgnd_1
XFILLER_20_253 VPWR VGND VPWR VGND sky130_ef_sc_hd__decap_12
XTAP_TAPCELL_ROW_22_237 VGND VPWR sky130_fd_sc_hd__tapvpwrvgnd_1
XFILLER_18_53 VPWR VGND VPWR VGND sky130_ef_sc_hd__decap_12
XFILLER_34_85 VGND VGND VPWR VPWR sky130_fd_sc_hd__decap_3
XFILLER_34_41 VGND VGND VPWR VPWR sky130_fd_sc_hd__fill_2
XFILLER_38_128 VGND VGND VPWR VPWR sky130_fd_sc_hd__fill_1
XFILLER_19_320 VGND VGND VPWR VPWR sky130_fd_sc_hd__fill_2
X_1021_ net216 VGND VGND VPWR VPWR _0110_ sky130_fd_sc_hd__inv_2
X_1785_ _0895_ _0802_ net204 VGND VGND VPWR VPWR _0896_ sky130_fd_sc_hd__mux2_1
X_1923_ net125 _0006_ net124 _0000_ VGND VGND VPWR VPWR _0013_ sky130_fd_sc_hd__a2bb2o_4
X_1854_ _0175_ _0960_ _0961_ VGND VGND VPWR VPWR _0962_ sky130_fd_sc_hd__o21ai_1
X_1219_ net238 net198 VGND VGND VPWR VPWR _0350_ sky130_fd_sc_hd__and2_1
XFILLER_20_54 VPWR VGND VPWR VGND sky130_ef_sc_hd__decap_12
XFILLER_45_95 VGND VGND VPWR VPWR sky130_fd_sc_hd__fill_1
XFILLER_45_51 VGND VGND VPWR VPWR sky130_fd_sc_hd__decap_4
XFILLER_43_175 VGND VGND VPWR VPWR sky130_fd_sc_hd__fill_1
XFILLER_31_304 VGND VGND VPWR VPWR sky130_fd_sc_hd__decap_4
XFILLER_28_183 VGND VGND VPWR VPWR sky130_fd_sc_hd__fill_2
XTAP_TAPCELL_ROW_41_343 VGND VPWR sky130_fd_sc_hd__tapvpwrvgnd_1
X_1570_ _0165_ _0664_ _0665_ _0661_ VGND VGND VPWR VPWR _0689_ sky130_fd_sc_hd__a2bb2o_4
X_2053_ _0112_ _0146_ VGND VGND VPWR VPWR _0147_ sky130_fd_sc_hd__xnor2_1
XFILLER_26_109 VGND VGND VPWR VPWR sky130_fd_sc_hd__decap_6
XFILLER_13_3 VPWR VGND VPWR VGND sky130_ef_sc_hd__decap_12
Xrebuffer28 _0767_ VGND VGND VPWR VPWR net280 sky130_fd_sc_hd__dlygate4sd1_1
XFILLER_34_197 VPWR VGND VPWR VGND sky130_ef_sc_hd__decap_12
XFILLER_34_175 VGND VGND VPWR VPWR sky130_fd_sc_hd__fill_2
XFILLER_34_164 VGND VGND VPWR VPWR sky130_fd_sc_hd__fill_2
X_1768_ net248 net46 VGND VGND VPWR VPWR _0880_ sky130_fd_sc_hd__nand2_1
X_1837_ net245 net119 _0943_ _0945_ net129 VGND VGND VPWR VPWR _0946_ sky130_fd_sc_hd__o221a_1
X_1906_ net241 _1010_ net157 VGND VGND VPWR VPWR _1012_ sky130_fd_sc_hd__o21a_1
X_1699_ _0800_ net124 _0813_ VGND VGND VPWR VPWR net82 sky130_fd_sc_hd__a21o_1
XFILLER_13_304 VGND VGND VPWR VPWR sky130_fd_sc_hd__fill_1
XFILLER_40_112 VGND VGND VPWR VPWR sky130_fd_sc_hd__fill_2
XFILLER_15_76 VGND VGND VPWR VPWR sky130_fd_sc_hd__decap_3
Xoutput75 net75 VGND VGND VPWR VPWR Result[11] sky130_fd_sc_hd__buf_6
Xoutput97 net97 VGND VGND VPWR VPWR Result[31] sky130_fd_sc_hd__buf_6
Xoutput86 net86 VGND VGND VPWR VPWR Result[21] sky130_fd_sc_hd__buf_6
XFILLER_0_285 VGND VGND VPWR VPWR sky130_fd_sc_hd__decap_3
X_1622_ net107 _0739_ net184 VGND VGND VPWR VPWR _0740_ sky130_fd_sc_hd__o21ai_1
XFILLER_39_223 VGND VGND VPWR VPWR sky130_fd_sc_hd__fill_1
X_1553_ net115 _0662_ _0672_ VGND VGND VPWR VPWR _0673_ sky130_fd_sc_hd__a21bo_1
X_1484_ _0590_ net124 _0606_ net184 _0597_ VGND VGND VPWR VPWR _0607_ sky130_fd_sc_hd__a221o_1
XFILLER_39_267 VGND VGND VPWR VPWR sky130_fd_sc_hd__decap_6
X_2036_ _0497_ _0527_ _0127_ VGND VGND VPWR VPWR _0128_ sky130_fd_sc_hd__o21a_1
XFILLER_22_167 VPWR VGND VPWR VGND sky130_ef_sc_hd__decap_12
XFILLER_42_41 VPWR VGND VPWR VGND sky130_ef_sc_hd__decap_12
Xrebuffer8 net275 VGND VGND VPWR VPWR net260 sky130_fd_sc_hd__clkbuf_2
XFILLER_3_57 VGND VGND VPWR VPWR sky130_fd_sc_hd__decap_8
XTAP_TAPCELL_ROW_8_160 VGND VPWR sky130_fd_sc_hd__tapvpwrvgnd_1
XFILLER_36_204 VPWR VGND VPWR VGND sky130_ef_sc_hd__decap_12
XTAP_TAPCELL_ROW_14_195 VGND VPWR sky130_fd_sc_hd__tapvpwrvgnd_1
X_1536_ _0420_ _0656_ net174 VGND VGND VPWR VPWR _0657_ sky130_fd_sc_hd__mux2_1
X_1605_ _0721_ _0722_ net123 VGND VGND VPWR VPWR _0723_ sky130_fd_sc_hd__a21o_1
XFILLER_8_171 VGND VGND VPWR VPWR sky130_fd_sc_hd__fill_2
Xfanout117 _0189_ VGND VGND VPWR VPWR net117 sky130_fd_sc_hd__buf_8
Xfanout128 _0209_ VGND VGND VPWR VPWR net128 sky130_fd_sc_hd__buf_2
X_1398_ net135 _0519_ _0521_ net142 VGND VGND VPWR VPWR _0524_ sky130_fd_sc_hd__a22oi_1
Xfanout139 net141 VGND VGND VPWR VPWR net139 sky130_fd_sc_hd__buf_2
X_1467_ _0588_ _0589_ VGND VGND VPWR VPWR _0590_ sky130_fd_sc_hd__nand2_2
XFILLER_50_251 VGND VGND VPWR VPWR sky130_fd_sc_hd__fill_1
X_2019_ net96 net71 VGND VGND VPWR VPWR _0109_ sky130_fd_sc_hd__xnor2_2
XFILLER_42_229 VGND VGND VPWR VPWR sky130_fd_sc_hd__fill_1
XFILLER_27_259 VPWR VGND VPWR VGND sky130_ef_sc_hd__decap_12
XPHY_EDGE_ROW_19_Left_73 VGND VGND VPWR VPWR sky130_fd_sc_hd__decap_3
XFILLER_50_284 VPWR VGND VPWR VGND sky130_ef_sc_hd__decap_12
XFILLER_37_63 VGND VGND VPWR VPWR sky130_fd_sc_hd__decap_6
XTAP_TAPCELL_ROW_5_141 VGND VPWR sky130_fd_sc_hd__tapvpwrvgnd_1
XFILLER_53_51 VGND VGND VPWR VPWR sky130_fd_sc_hd__decap_4
XFILLER_41_262 VGND VGND VPWR VPWR sky130_fd_sc_hd__decap_4
XFILLER_5_152 VPWR VGND VPWR VGND sky130_ef_sc_hd__decap_12
XTAP_TAPCELL_ROW_11_176 VGND VPWR sky130_fd_sc_hd__tapvpwrvgnd_1
X_1252_ net229 net215 net207 net6 net219 net210 VGND VGND VPWR VPWR _0382_ sky130_fd_sc_hd__mux4_1
X_1321_ _0307_ _0280_ net203 VGND VGND VPWR VPWR _0449_ sky130_fd_sc_hd__mux2_1
X_1183_ net198 net148 VGND VGND VPWR VPWR _0314_ sky130_fd_sc_hd__nand2_1
XFILLER_17_281 VPWR VGND VPWR VGND sky130_ef_sc_hd__decap_12
XTAP_TAPCELL_ROW_19_221 VGND VPWR sky130_fd_sc_hd__tapvpwrvgnd_1
X_1519_ _0638_ _0639_ VGND VGND VPWR VPWR _0640_ sky130_fd_sc_hd__nor2_1
XPHY_EDGE_ROW_12_Right_12 VGND VGND VPWR VPWR sky130_fd_sc_hd__decap_3
XPHY_EDGE_ROW_21_Right_21 VGND VGND VPWR VPWR sky130_fd_sc_hd__decap_3
XPHY_EDGE_ROW_4_Left_58 VGND VGND VPWR VPWR sky130_fd_sc_hd__decap_3
XFILLER_23_54 VGND VGND VPWR VPWR sky130_fd_sc_hd__fill_2
XFILLER_23_262 VPWR VGND VPWR VGND sky130_ef_sc_hd__decap_12
XPHY_EDGE_ROW_30_Right_30 VGND VGND VPWR VPWR sky130_fd_sc_hd__decap_3
XFILLER_0_47 VGND VGND VPWR VPWR sky130_fd_sc_hd__fill_1
XTAP_TAPCELL_ROW_16_202 VGND VPWR sky130_fd_sc_hd__tapvpwrvgnd_1
X_1870_ net175 _0779_ _0977_ net114 VGND VGND VPWR VPWR _0978_ sky130_fd_sc_hd__o211a_1
XFILLER_14_251 VGND VGND VPWR VPWR sky130_fd_sc_hd__fill_1
XFILLER_14_273 VGND VGND VPWR VPWR sky130_fd_sc_hd__decap_3
XFILLER_43_3 VPWR VGND VPWR VGND sky130_ef_sc_hd__decap_12
XFILLER_37_321 VGND VGND VPWR VPWR sky130_fd_sc_hd__fill_1
X_1166_ net211 _0297_ VGND VGND VPWR VPWR _0298_ sky130_fd_sc_hd__nor2_1
X_1304_ net169 _0432_ VGND VGND VPWR VPWR net99 sky130_fd_sc_hd__nor2_1
X_1235_ _0356_ _0364_ VGND VGND VPWR VPWR _0365_ sky130_fd_sc_hd__xnor2_1
X_1097_ _0227_ _0229_ net200 VGND VGND VPWR VPWR _0230_ sky130_fd_sc_hd__mux2_1
XTAP_TAPCELL_ROW_22_238 VGND VPWR sky130_fd_sc_hd__tapvpwrvgnd_1
X_1999_ net57 net150 net145 _0087_ VGND VGND VPWR VPWR _0088_ sky130_fd_sc_hd__a211o_1
XTAP_TAPCELL_ROW_30_282 VGND VPWR sky130_fd_sc_hd__tapvpwrvgnd_1
XFILLER_20_265 VPWR VGND VPWR VGND sky130_ef_sc_hd__decap_12
XFILLER_47_129 VGND VGND VPWR VPWR sky130_fd_sc_hd__fill_1
XFILLER_18_65 VGND VGND VPWR VPWR sky130_fd_sc_hd__fill_2
XFILLER_50_41 VPWR VGND VPWR VGND sky130_ef_sc_hd__decap_12
XFILLER_34_64 VGND VGND VPWR VPWR sky130_fd_sc_hd__decap_4
XFILLER_7_258 VGND VGND VPWR VPWR sky130_fd_sc_hd__decap_3
X_1020_ net250 VGND VGND VPWR VPWR _0100_ sky130_fd_sc_hd__inv_2
XFILLER_46_195 VGND VGND VPWR VPWR sky130_fd_sc_hd__fill_1
X_1922_ _0548_ _0010_ _0011_ net257 VGND VGND VPWR VPWR _0012_ sky130_fd_sc_hd__o31a_1
X_1784_ _0855_ _0894_ net179 VGND VGND VPWR VPWR _0895_ sky130_fd_sc_hd__mux2_1
X_1853_ net244 _0959_ net155 VGND VGND VPWR VPWR _0961_ sky130_fd_sc_hd__o21a_1
X_1149_ net14 net247 net246 net245 net336 net212 VGND VGND VPWR VPWR _0281_ sky130_fd_sc_hd__mux4_1
XFILLER_29_129 VGND VGND VPWR VPWR sky130_fd_sc_hd__decap_4
X_1218_ net238 net198 VGND VGND VPWR VPWR _0349_ sky130_fd_sc_hd__nor2_1
XTAP_TAPCELL_ROW_50_388 VGND VPWR sky130_fd_sc_hd__tapvpwrvgnd_1
XFILLER_28_195 VGND VGND VPWR VPWR sky130_fd_sc_hd__fill_1
XPHY_EDGE_ROW_7_Left_61 VGND VGND VPWR VPWR sky130_fd_sc_hd__decap_3
XFILLER_6_79 VGND VGND VPWR VPWR sky130_fd_sc_hd__fill_1
X_2052_ _0114_ _0145_ VGND VGND VPWR VPWR _0146_ sky130_fd_sc_hd__xnor2_1
Xrebuffer29 _0862_ VGND VGND VPWR VPWR net281 sky130_fd_sc_hd__dlygate4sd1_1
X_1905_ net157 _1010_ VGND VGND VPWR VPWR _1011_ sky130_fd_sc_hd__nand2_1
X_1767_ net248 net119 _0878_ net163 VGND VGND VPWR VPWR _0879_ sky130_fd_sc_hd__o22a_1
XPHY_EDGE_ROW_6_Right_6 VGND VGND VPWR VPWR sky130_fd_sc_hd__decap_3
X_1836_ net245 net49 net144 VGND VGND VPWR VPWR _0945_ sky130_fd_sc_hd__a21oi_1
X_1698_ _0812_ net125 _0248_ _0806_ VGND VGND VPWR VPWR _0813_ sky130_fd_sc_hd__a2bb2o_1
XFILLER_25_165 VGND VGND VPWR VPWR sky130_fd_sc_hd__decap_3
Xoutput87 net87 VGND VGND VPWR VPWR Result[22] sky130_fd_sc_hd__buf_6
XPHY_EDGE_ROW_33_Left_87 VGND VGND VPWR VPWR sky130_fd_sc_hd__decap_3
XFILLER_0_253 VGND VGND VPWR VPWR sky130_fd_sc_hd__decap_4
XFILLER_0_242 VGND VGND VPWR VPWR sky130_fd_sc_hd__decap_6
Xoutput98 net98 VGND VGND VPWR VPWR Result[3] sky130_fd_sc_hd__clkbuf_4
Xoutput76 net76 VGND VGND VPWR VPWR Result[12] sky130_fd_sc_hd__clkbuf_4
X_1621_ net191 net167 _0737_ _0738_ VGND VGND VPWR VPWR _0739_ sky130_fd_sc_hd__a31o_1
X_1552_ _0670_ _0671_ VGND VGND VPWR VPWR _0672_ sky130_fd_sc_hd__nand2_1
XFILLER_39_235 VGND VGND VPWR VPWR sky130_fd_sc_hd__decap_8
X_1483_ net113 _0604_ _0605_ net190 _0600_ VGND VGND VPWR VPWR _0606_ sky130_fd_sc_hd__a221o_1
X_2035_ net101 net102 VGND VGND VPWR VPWR _0127_ sky130_fd_sc_hd__or2_1
XFILLER_22_179 VGND VGND VPWR VPWR sky130_fd_sc_hd__decap_4
X_1819_ net246 net119 net130 _0923_ _0928_ VGND VGND VPWR VPWR _0929_ sky130_fd_sc_hd__o221a_1
XFILLER_38_290 VGND VGND VPWR VPWR sky130_fd_sc_hd__fill_1
XFILLER_53_271 VGND VGND VPWR VPWR sky130_fd_sc_hd__fill_2
XFILLER_42_53 VGND VGND VPWR VPWR sky130_fd_sc_hd__decap_8
XFILLER_26_65 VPWR VGND VPWR VGND sky130_ef_sc_hd__decap_12
XFILLER_9_106 VGND VGND VPWR VPWR sky130_fd_sc_hd__fill_1
XFILLER_13_157 VGND VGND VPWR VPWR sky130_fd_sc_hd__decap_4
XTAP_TAPCELL_ROW_8_161 VGND VPWR sky130_fd_sc_hd__tapvpwrvgnd_1
XFILLER_44_271 VPWR VGND VPWR VGND sky130_ef_sc_hd__decap_12
XFILLER_36_216 VGND VGND VPWR VPWR sky130_fd_sc_hd__fill_1
X_1535_ _0655_ _0543_ net201 VGND VGND VPWR VPWR _0656_ sky130_fd_sc_hd__mux2_1
Xfanout107 _0548_ VGND VGND VPWR VPWR net107 sky130_fd_sc_hd__buf_2
X_1604_ net39 net137 net129 _0167_ VGND VGND VPWR VPWR _0722_ sky130_fd_sc_hd__o2bb2a_1
Xfanout129 net130 VGND VGND VPWR VPWR net129 sky130_fd_sc_hd__buf_2
Xfanout118 net121 VGND VGND VPWR VPWR net118 sky130_fd_sc_hd__buf_2
X_1397_ net127 _0520_ VGND VGND VPWR VPWR _0523_ sky130_fd_sc_hd__or2_1